tests/data/three_bus_v35.raw
@!IC, SBASE,REV,XFRRAT,NXFRAT,BASFRQ
0,   100.00, 35,     0,     1, 60.00     / PSS(R)E-35 synthetic three-bus case
SYNTHETIC THREE-BUS CASE FOR GRIDLENS TESTS
NOT A REAL NETWORK
GENERAL, THRSHZ=0.0001, PQBRAK=0.7, BLOWUP=5.0
RATING, 1, "RATE1 ", "RATING SET 1                    "
0 / END OF SYSTEM-WIDE DATA, BEGIN BUS DATA
@!   I,'NAME        ', BASKV, IDE,AREA,ZONE,OWNER, VM,        VA,    NVHI,   NVLO,   EVHI,   EVLO
   101,'NORTH 1     ', 138.0000,2,   1,   1,   1,1.02000,   0.0000,1.10000,0.90000,1.10000,0.90000
   102,'NORTH 2     ', 138.0000,1,   1,   1,   1,1.01000,  -2.0000,1.10000,0.90000,1.10000,0.90000
   201,'SOUTH 1     ', 230.0000,3,   2,   3,   4,1.00000,   0.0000,1.10000,0.90000,1.10000,0.90000
0 / END OF BUS DATA, BEGIN LOAD DATA
@!   I,'ID',STAT,AREA,ZONE,      PL,        QL,        IP,        IQ,        YP,        YQ, OWNER,SCALE,INTRPT,  DGENP,     DGENQ, DGENM, LOADTYPE
   102,'1 ',1,   1,   1,    50.000,    10.000,     0.000,     0.000,     0.000,     0.000,   1,1,0,     0.000,     0.000,0,'            '
0 / END OF LOAD DATA, BEGIN FIXED SHUNT DATA
@!   I,'ID',STATUS,  GL,        BL
0 / END OF FIXED SHUNT DATA, BEGIN GENERATOR DATA
@!   I,'ID',      PG,        QG,        QT,        QB,     VS,    IREG,  NREG,   MBASE,     ZR,         ZX,         RT,         XT,     GTAP,STAT, RMPCT,      PT,        PB,BASLOD,    O1,    F1,  O2,    F2,  O3,    F3,  O4,    F4,WMOD, WPF
   101,'1 ',    40.000,     5.000,    30.000,   -30.000,1.02000,     0,     0,   100.000, 0.00000E+0, 2.00000E-1, 0.00000E+0, 0.00000E+0,1.00000,1,  100.0,    60.000,     0.000,0,   1,1.0000,   0,1.0000,   0,1.0000,   0,1.0000,0, 1.0000
   201,'1 ',    10.000,     0.000,    99.000,   -99.000,1.00000,     0,     0,   100.000, 0.00000E+0, 2.00000E-1, 0.00000E+0, 0.00000E+0,1.00000,1,  100.0,   200.000,     0.000,0,   4,1.0000,   0,1.0000,   0,1.0000,   0,1.0000,0, 1.0000
0 / END OF GENERATOR DATA, BEGIN BRANCH DATA
@!   I,     J,'CKT',     R,          X,         B,                    'N A M E'                 ,   RATE1,   RATE2,   RATE3,   RATE4,   RATE5,   RATE6,   RATE7,   RATE8,   RATE9,  RATE10,  RATE11,  RATE12,    GI,       BI,       GJ,       BJ,STAT,MET,  LEN,  O1,  F1,    O2,  F2,    O3,  F3,    O4,  F4
   101,   102,'1 ', 1.00000E-2, 5.00000E-2,   0.02000,'NORTH LINE                              ',  100.00,  110.00,  120.00,    0.00,    0.00,    0.00,    0.00,    0.00,    0.00,    0.00,    0.00,    0.00,  0.00000,  0.00000,  0.00000,  0.00000,1,1,   10.00,   1,1.0000,   0,1.0000,   0,1.0000,   0,1.0000
   102,   201,'1 ', 2.00000E-2, 8.00000E-2,   0.03000,'TIE LINE                                ',  200.00,  220.00,  240.00,    0.00,    0.00,    0.00,    0.00,    0.00,    0.00,    0.00,    0.00,    0.00,  0.00000,  0.00000,  0.00000,  0.00000,1,1,   20.00,   1,1.0000,   0,1.0000,   0,1.0000,   0,1.0000
0 / END OF BRANCH DATA, BEGIN SYSTEM SWITCHING DEVICE DATA
0 / END OF SYSTEM SWITCHING DEVICE DATA, BEGIN TRANSFORMER DATA
0 / END OF TRANSFORMER DATA, BEGIN AREA DATA
     1,   101,     0.000,    10.000,'NORTH       '
     2,   201,     0.000,    10.000,'SOUTH       '
0 / END OF AREA DATA, BEGIN TWO-TERMINAL DC DATA
0 / END OF TWO-TERMINAL DC DATA, BEGIN VSC DC LINE DATA
0 / END OF VSC DC LINE DATA, BEGIN IMPEDANCE CORRECTION DATA
0 / END OF IMPEDANCE CORRECTION DATA, BEGIN MULTI-TERMINAL DC DATA
0 / END OF MULTI-TERMINAL DC DATA, BEGIN MULTI-SECTION LINE DATA
0 / END OF MULTI-SECTION LINE DATA, BEGIN ZONE DATA
     1,'NORTH       '
     3,'SOUTH       '
0 / END OF ZONE DATA, BEGIN INTER-AREA TRANSFER DATA
0 / END OF INTER-AREA TRANSFER DATA, BEGIN OWNER DATA
     1,'NORTH CO    '
     4,'SOUTH CO    '
0 / END OF OWNER DATA, BEGIN FACTS DEVICE DATA
0 / END OF FACTS DEVICE DATA, BEGIN SWITCHED SHUNT DATA
0 / END OF SWITCHED SHUNT DATA, BEGIN GNE DEVICE DATA
0 / END OF GNE DEVICE DATA, BEGIN INDUCTION MACHINE DATA
0 / END OF INDUCTION MACHINE DATA
Q
